7 
Place specifications here
C 0.270270 0.270270 0.000000 1.000000 0.0 
C -0.135135 0.270270 0.000000 1.000000 0.0 
C -0.329730 0.270270 0.324595 1.000000 0.0 
C -0.707027 0.269730 0.320541 1.000000 0.0 
C -0.892432 0.269459 -0.007297 1.000000 0.0 
C -0.700541 0.269459 -0.331351 1.000000 0.0 
C -0.323784 0.269730 -0.328378 1.000000 0.0 
